ca_results/winter/base_lines_with_realweather_T.csv
FromBus#,ToBus#,CKT,Pij(MW),Qij(MVAr),Sij(MVA),Pji(MW),Qji(MVAr),Sji(MVA),RateA,Ploss(MW),Qloss(MVAr),Current(A),Tcond(degC),lat_mid,lon_mid,bearing_deg,length_km,weather_site_id,weather_site_distance_km,weather_site_elevation_m,air_temperature,ghi,surface_pressure,surface_pressure_pa,wind_direction,wind_speed,wind_conductor_angle_deg,Tcond_realweather(degC),Ampacity_at_75C(A),Loading_realweather_%
101,102,A1,-5.624716,-30.55331,31.06674,5.628528,30.571098,31.084922,175.0,0.003812,0.017788,135.22761561457875,8.905916213989258,33.3768908526,-113.8307877345,168.0832196909272,4.366718050928278,272693,66.37854754514882,91.0,11.399999618530273,39.0,1008.0,100800.0,46.0,0.8999999761581421,57.916780309072806,12.720225527013099,1210.9505572743788,11.167063329071883
101,103,A2,15.015307,3.275598,15.368441,-14.860293,-2.680907,15.100185,175.0,0.155014,0.59469,66.89590321170913,8.228883743286133,33.4664680426,-114.25302055200001,281.65513948457516,78.99713734402492,272693,27.889914770408065,91.0,11.399999618530273,39.0,1008.0,100800.0,46.0,0.8999999761581421,124.34486051542484,12.083094788689777,1207.2596147715283,5.541136503963073
101,105,A3,2.367462,-5.281117,5.787493,-2.361889,5.30265,5.804879,175.0,0.005573,0.021533,25.191857233042967,8.041143417358398,33.527831551000006,-113.917332536,332.7077807708397,32.97810897483768,272693,55.37740896846629,91.0,11.399999618530273,39.0,1008.0,100800.0,46.0,0.8999999761581421,73.29221922916031,11.883763886271481,1229.6505437140033,2.0487005321816194
102,104,A4,5.703877,9.593987,11.161488,-5.647868,-9.378437,10.947762,175.0,0.056009,0.215551,48.50690129261661,8.124799728393555,33.58499098295,-113.82567627200001,0.053868993317280456,50.552094829892674,273508,61.87228040205209,89.0,11.0,39.0,1005.0,100500.0,46.0,0.8999999761581421,45.94613100668272,11.607656478881836,1188.8033143376833,4.080313430118691
102,106,A5,5.33918,-9.224419,10.658177,-5.298742,9.379698,10.772901,175.0,0.040437,0.155279,46.31955342318484,8.115072250366211,33.54785744425,-114.003928834,322.14286051780334,53.63905217588826,272693,47.56965144659038,91.0,11.399999618530273,39.0,1008.0,100800.0,46.0,0.8999999761581421,83.85713948219666,11.939285279182513,1243.6007387549291,3.724632189392164
103,109,A6,-44.356529,6.383038,44.813446,45.068053,-3.651704,45.215753,175.0,0.711524,2.731334,199.44222821958587,9.956483840942385,33.72863454765,-114.48934004450001,38.03489934721705,54.229833774295344,273508,0.9566740748851706,89.0,11.0,39.0,1005.0,100500.0,46.0,0.8999999761581421,7.965100652782951,14.660982131958008,982.1313162479078,20.307083678130375
103,124,A7,-21.186422,-15.078139,26.004129,21.201727,15.720917,26.394326,400.0,0.015304,0.642778,115.73136845288693,8.666620254516602,33.53989894155,-114.6634437025,62.122581397062504,1.4584863725043906,270245,1.1363138040058882,75.0,11.0,34.0,1008.0,100800.0,46.0,1.2000000476837158,163.8774186029375,12.262266159057617,1101.3763374781431,10.507885861964382
104,109,A8,-27.406805,5.774906,28.008615,27.648331,-4.844582,28.06956,175.0,0.241526,0.930323,123.86980103304322,8.76194953918457,33.8663698982,-114.066850007,285.22792751338363,46.175372092212655,277498,39.42199663193729,151.0,10.899999618530273,56.0,995.0,99500.0,59.0,0.6000000238418579,133.77207248661637,12.610632136213098,1100.9855773740946,11.250810508206552
105,110,A9,-29.35273,-9.424461,30.828609,29.582892,10.305084,31.326383,175.0,0.230163,0.880622,133.74664426632305,8.88646125793457,33.786176454599996,-114.14599382399999,316.1102545640957,39.125724159032,273508,31.981051974502726,89.0,11.0,39.0,1005.0,100500.0,46.0,0.8999999761581421,89.88974543590427,12.208475112915039,1258.1169733884544,10.630700252465921
106,110,10,-55.450367,-111.801598,124.797203,55.907817,113.794772,126.786963,175.0,0.45745,1.993174,536.273894813839,21.801633834838867,33.82541475805,-114.23744436449999,332.2035219612036,21.973081610449327,273508,25.547898565618038,89.0,11.0,39.0,1005.0,100500.0,46.0,0.8999999761581421,73.79647803879641,24.148263931274414,1233.1633021421167,43.48766249224921
107,108,11,77.74894,0.333309,77.749657,-76.706907,3.639439,76.793197,175.0,1.042032,3.972748,337.59781830301995,13.553705215454102,34.57823637615,-113.7314761945,191.80450991680215,27.040331428742554,280694,48.23352083597048,170.0,11.399999618530273,52.0,996.0,99600.0,71.0,0.8999999761581421,59.19549008319785,17.289363107560348,1208.6474477943143,27.931868711517918
107,203,B1,148.65567,-1.53581,148.663589,-138.657996,39.860227,144.273621,175.0,9.997674,38.324417,645.5141442938693,27.785978317260746,35.0258321095,-113.838621218,341.18656177700467,77.23111035384919,273483,67.12170109617558,151.0,10.100000381469727,43.0,991.0,99100.0,71.0,1.2000000476837158,89.81343822299533,25.954445050778304,1340.5309799813035,48.153616285904285
108,109,1,0.230275,0.514888,0.564036,-0.227159,-0.502927,0.551849,175.0,0.003117,0.01196,2.480924871530778,8.010015487670898,34.18982353435,-114.034962272,220.15903880363092,78.21129921512714,280694,14.468759995973627,170.0,11.399999618530273,52.0,996.0,99600.0,71.0,0.8999999761581421,30.84096119636908,12.132244874217577,1125.1468742172656,0.2204978681789158
108,110,2,0.093585,-18.23019,18.230431,0.031072,18.708525,18.708551,175.0,0.124657,0.478335,80.1869555961423,8.325185775756836,34.1860019329,-114.0273040675,218.96149073017423,77.97500234740549,280694,15.230903469254052,170.0,11.399999618530273,52.0,996.0,99600.0,71.0,0.8999999761581421,32.03850926982577,12.469013978759904,1130.850761954863,7.090852152544501
109,111,14,-61.191021,1.284526,61.204506,61.274626,2.226904,61.315079,400.0,0.083605,3.51143,270.4971100478657,11.580972671508787,33.91241117325,-114.304699342,159.67425780531744,1.9031858797390406,273502,18.441799885429408,97.0,10.699999809265137,44.0,998.0,99800.0,59.0,0.5,79.32574219468256,15.452790073368305,1111.4303798546346,24.33774665069389
109,112,15,-89.467987,1.041155,89.474037,89.646661,6.463167,89.879344,400.0,0.178674,7.504321,395.4360555220527,15.589666366577148,33.9156511436,-114.31084169450001,203.947168667828,1.1643839227143522,273502,17.80785802409589,97.0,10.699999809265137,44.0,998.0,99800.0,59.0,0.5,35.05283133217199,21.4940780725683,1038.1181103063589,38.091624796465176
110,111,16,-71.686592,40.114887,82.147255,71.827339,-34.203523,79.555311,400.0,0.140747,5.911365,350.96556040057226,13.997278213500977,33.9085895718,-114.2970411375,218.83185834528146,1.199999298332487,273502,19.225322946508676,97.0,10.699999809265137,44.0,998.0,99800.0,59.0,0.5,20.16814165471854,20.694415291169207,972.5705458947739,36.086385906091856
110,112,17,-100.938667,40.10997,108.615944,101.184726,-29.775485,105.474776,400.0,0.246059,10.334485,464.0502674666021,18.39798927307129,33.91182954215,-114.30318349000001,263.52385649728956,1.8981503306103409,273502,18.59008452775047,97.0,10.699999809265137,44.0,998.0,99800.0,59.0,0.5,155.47614350271044,26.533049023850253,994.5498949120797,46.65932497108404
111,113,18,-244.734482,39.576031,247.913742,248.859941,-6.572353,248.946714,500.0,4.12546,33.003677,656.2165782456943,28.424100875854492,34.1293332045,-114.287887337,2.7798809616962217,50.08528154115857,277498,4.623035951639475,151.0,10.899999618530273,56.0,995.0,99500.0,59.0,0.6000000238418579,56.22011903830378,34.50453933667086,1119.8532480993504,58.59844397999876
111,114,19,111.632286,-7.599314,111.890648,-110.93873,13.425187,111.748098,500.0,0.693556,5.825873,296.16953693617126,12.286214828491213,33.84073608285,-114.56051449450001,253.6860893720658,49.96150226236739,271871,2.0077707949584878,269.0,10.199999809265137,55.0,994.0,99400.0,59.0,0.699999988079071,165.3139106279342,17.513998609638293,993.5335673437644,29.809716216029575
112,113,20,-197.137604,32.793468,199.846558,199.808704,-11.424669,200.135057,500.0,2.6711,21.368799,527.5508917618573,21.3668155670166,34.132573174849995,-114.29402968950001,4.126021058856338,49.43428786192113,277498,4.172118022807155,151.0,10.899999618530273,56.0,995.0,99500.0,59.0,0.6000000238418579,54.87397894114366,26.718903948272782,1117.8071584882323,47.195161325978496
112,123,21,6.306174,-9.480873,11.386605,-6.300885,9.523631,11.419312,500.0,0.00529,0.042758,30.058129006605277,8.053789138793945,34.14643314265,-114.691095425,307.21393123188295,87.0443510046333,269416,1.9810322366643094,324.0,8.899999618530273,53.0,976.0,97600.0,346.0,1.2999999523162842,38.78606876811705,9.535988427214761,1267.499283488054,2.371451360815587
113,123,22,117.225754,-16.765898,118.418633,-115.541927,30.08344,119.394096,500.0,1.683827,13.317542,312.90173748108697,12.778425216674805,34.3681403032,-114.6717226875,272.6456124243665,72.95310639099516,270224,1.0590202066430323,388.0,8.899999618530273,43.0,971.0,97100.0,71.0,1.2000000476837158,158.3543875756335,14.706674012788426,1149.3614206940665,27.223963833076507
113,215,B2,319.239166,-19.338245,319.824341,-307.93028,104.154896,325.068146,500.0,11.308887,84.81665,845.0831550102731,41.11651420593262,34.7514356122,-114.425215633,342.78515118710203,92.50852375989442,273483,7.038480495579008,151.0,10.100000381469727,43.0,991.0,99100.0,71.0,1.2000000476837158,88.21484881289797,36.717475658053445,1336.7947023136414,63.21712328360186
114,116,23,24.282104,-22.956156,33.415649,-24.228297,23.59109,33.816414,500.0,0.053808,0.634934,88.72749284424654,8.396196365356445,33.71905866655,-115.07048464,254.58110202453383,48.11325865555416,262163,1.5254500733407452,387.0,9.100000381469727,50.0,990.0,99000.0,7.0,2.0,112.41889797546617,9.74281330006852,1487.8570198426282,5.963442162851865
115,116,24,-99.049744,41.369999,107.34211,99.301983,-39.225967,106.768723,500.0,0.252239,2.144032,280.2017941804828,11.840696334838867,33.5836074796,-115.325283222,2.6007230139453554,17.236067799848346,256615,1.991195585655014,994.0,4.800000190734863,47.0,910.0,91000.0,14.0,1.600000023841858,11.399276986054645,9.952451511189793,1151.5740507594417,24.332069135779406
115,121,1,-0.897258,-8.162366,8.211534,0.89806,8.168918,8.218134,500.0,0.000802,0.006552,21.435078551875275,8.032388687133789,33.5166525943,-115.700143213,272.1450146356158,68.75953430638423,249642,1.4759306061184725,343.0,9.899999618530273,41.0,989.0,98900.0,14.0,1.399999976158142,101.85498536438422,10.30254154269278,1369.8872302838884,1.5647330727678352
115,121,2,-0.897258,-8.162366,8.211534,0.89806,8.168918,8.218134,500.0,0.000802,0.006552,21.435078551875275,8.032388687133789,33.5166525943,-115.700143213,272.1450146356158,68.75953430638423,249642,1.4759306061184725,343.0,9.899999618530273,41.0,989.0,98900.0,14.0,1.399999976158142,101.85498536438422,10.30254154269278,1369.8872302838884,1.5647330727678352
115,124,26,21.245155,6.042025,22.087614,-21.201693,-5.719162,21.959522,500.0,0.043462,0.322863,57.656674272249255,8.172464370727539,33.524574389449995,-114.9929983545,86.0634407392426,62.52120431249092,263770,1.2987773397332119,181.0,9.0,49.0,991.0,99100.0,7.0,2.0999999046325684,100.9365592607574,9.470243453979492,1525.7012215159837,3.779027863329611
116,117,27,28.58003,-17.717056,33.626064,-28.545651,18.01501,33.754922,500.0,0.034379,0.297953,88.26918228566498,8.392305374145508,33.6181318947,-115.48093336950001,252.22842579087137,31.107139968025567,253477,1.9140400448987045,626.0,7.900000095367432,42.0,957.0,95700.0,14.0,1.399999976158142,121.77157420912863,8.621745204641229,1350.8931590506336,6.534134967986503
116,119,28,-86.32206,35.669201,93.40123,86.613668,-33.43354,92.842496,500.0,0.291608,2.235661,245.18035166337995,10.946741104125977,33.76505507735,-115.3450942825,349.13986505303745,23.556813083232125,256610,0.7090697519730219,173.0,9.800000190734863,33.0,999.0,99900.0,347.0,1.5,177.86013494696255,14.401151844185733,1029.0886267547437,23.824998672520774
117,118,29,23.318928,6.65472,24.249899,-23.305713,-6.562217,24.211959,500.0,0.013215,0.092503,63.439454612208415,8.207483291625977,33.55988168545,-115.720382362,257.0094374622221,15.136559396239369,248877,2.067412682375808,673.0,6.400000095367432,43.0,926.0,92600.0,14.0,1.399999976158142,116.99056253777792,6.9896157262401175,1362.3515489784188,4.65661412135359
117,122,30,5.226699,-19.623257,20.307402,-5.208968,19.75624,20.431407,500.0,0.017731,0.132984,53.12560301677423,8.14814567565918,33.19704830715,-115.9825780325,217.2849118719248,105.44450604735857,244330,1.4502294277503673,-1.0,12.800000190734863,41.0,1020.0,102000.0,269.0,1.100000023841858,51.715088128075195,13.376839637292505,1237.1064220601147,4.294343806598774
118,121,1,22.27984,-25.416214,33.799042,-22.246475,25.705383,33.995181,500.0,0.033366,0.289169,88.57328045947587,8.394250869750977,33.53582614645,-115.9353669965,265.66484574225194,25.175829908557873,245078,0.7639325348498951,-54.0,13.0,33.0,1018.0,101800.0,14.0,1.2000000476837158,108.33515425774806,13.640542984008789,1291.0435236495446,6.8605960091179075
118,121,2,22.27984,-25.416214,33.799042,-22.246475,25.705383,33.995181,500.0,0.033366,0.289169,88.57328045947587,8.394250869750977,33.53582614645,-115.9353669965,265.66484574225194,25.175829908557873,245078,0.7639325348498951,-54.0,13.0,33.0,1018.0,101800.0,14.0,1.2000000476837158,108.33515425774806,13.640542984008789,1291.0435236495446,6.8605960091179075
119,120,1,-83.731827,10.678987,84.410065,84.131685,-7.480119,84.463558,500.0,0.399859,3.198868,223.01406195097763,10.441884994506836,34.056828753299996,-115.315800239,13.212646757626715,42.89429659955225,257390,1.5908349052243251,342.0,8.800000190734863,40.0,982.0,98200.0,346.0,1.600000023841858,152.78735324237329,11.405277440871942,1269.380798796245,17.568728167501988
119,120,2,-83.731827,10.678987,84.410065,84.131685,-7.480119,84.463558,500.0,0.399859,3.198868,223.01406195097763,10.441884994506836,34.056828753299996,-115.315800239,13.212646757626715,42.89429659955225,257390,1.5908349052243251,342.0,8.800000190734863,40.0,982.0,98200.0,346.0,1.600000023841858,152.78735324237329,11.405277440871942,1269.380798796245,17.568728167501988
120,123,1,-112.719498,9.158064,113.090919,113.146825,-6.024327,113.30709,500.0,0.427328,3.133737,299.0993218485057,12.370843887329102,34.31328943195,-115.1656291745,49.28215064958658,23.450450783620735,259756,2.2441267823391438,707.0,7.699999809265137,46.0,961.0,96100.0,2.0,1.5,132.71784935041342,11.615801623565858,1349.789656048974,22.158957916747703
120,123,2,-112.719498,9.158064,113.090919,113.146825,-6.024327,113.30709,500.0,0.427328,3.133737,299.0993218485057,12.370843887329102,34.31328943195,-115.1656291745,49.28215064958658,23.450450783620735,259756,2.2441267823391438,707.0,7.699999809265137,46.0,961.0,96100.0,2.0,1.5,132.71784935041342,11.615801623565858,1349.789656048974,22.158957916747703
121,122,34,-5.201044,-13.994887,14.930095,5.208984,14.054875,14.989096,500.0,0.007939,0.059987,38.900611553093654,8.083944320678711,33.172992768149996,-116.197562667,196.75137436176485,82.21478769358605,240603,1.5911941943704755,192.0,12.100000381469727,39.0,1005.0,100500.0,269.0,1.0,72.24862563823515,12.599588202629093,1246.662522252028,3.1203802840580956
121,325,1,443.897522,49.749783,446.676697,-417.970037,159.830708,447.487215,500.0,25.927485,209.58049,1163.823584499356,67.84567832946777,33.88950639194999,-116.599877614,309.8193181099749,126.63031816801767,233264,1.7623985492877712,289.0,13.399999618530273,32.0,998.0,99800.0,218.0,0.6000000238418579,88.18068189002508,75.67690973786011,1139.6834608650836,102.11814284081552
123,217,B3,163.54924,-50.451351,171.154007,-160.379281,73.909052,176.590095,500.0,3.169959,23.457701,452.02988622748296,17.87562370300293,34.73487458595,-114.99497599799999,9.71178695733397,79.62675421689616,263740,1.4324488671760864,638.0,6.800000190734863,45.0,945.0,94500.0,2.0,1.399999976158142,172.28821304266603,20.264673031737402,1079.2713780737913,41.88287537414682
201,202,B1,14.093193,-30.940134,33.998676,-14.083486,30.985432,34.035887,175.0,0.009707,0.045298,148.7449484944402,9.094629287719728,36.2728130805,-113.73374720749999,330.06786134221716,4.4011989362247,264540,155.6214060520281,765.0,6.099999904632568,35.0,930.0,93000.0,334.0,1.100000023841858,3.9321386577828434,8.495326710683912,1000.451025176622,14.867789102238204
201,203,B2,-56.648243,28.358343,63.349976,59.154999,-18.741514,62.052867,175.0,2.506756,9.616829,277.15752570023665,11.758012771606444,35.80503293055,-113.848714785,192.97069564697503,102.80891251473568,269393,112.52290251671089,362.0,8.100000381469727,43.0,964.0,96400.0,354.0,1.2999999523162842,161.02930435302497,12.813075058180402,1154.3678821911674,24.009462665762076
201,205,B3,23.733562,-9.746668,25.65696,-23.579858,10.340525,25.747547,175.0,0.153704,0.593857,112.24975918838464,8.627710342407227,36.1674465537,-113.852268562,230.19480725713623,30.595990672773983,264540,139.93990431001146,765.0,6.099999904632568,35.0,930.0,93000.0,334.0,1.100000023841858,103.80519274286377,7.023426533106431,1311.4431355508952,8.559254774034265
202,204,B4,6.987159,12.014775,13.898749,-6.903239,-11.691811,13.577671,175.0,0.08392,0.322964,60.743513211022936,8.190946578979492,36.24012743795,-113.98393331349999,255.58339309310898,44.09339369915581,260525,137.5558724758757,1528.0,1.7999999523162842,35.0,849.0,84900.0,334.0,1.0,78.41660690689102,2.3950686932753342,1303.6106948412735,4.659635998032297
202,206,B5,19.382664,-11.740117,22.660936,-19.1299,12.710729,22.96771,175.0,0.252764,0.970612,99.03804042292909,8.49055290222168,36.0386798677,-113.8181726305,193.11788205041233,57.370194606690454,264540,132.24501532331928,765.0,6.099999904632568,35.0,930.0,93000.0,334.0,1.100000023841858,140.88211794958767,7.012261677145034,1236.9316652391358,8.006751157411923
203,209,B6,85.1008,-21.839104,87.858368,-82.364205,32.344097,88.487303,175.0,2.736595,10.504993,394.58700984072055,15.557565689086914,35.5797547942,-114.0633830655,342.5346845645803,52.55291889027809,269393,81.32743088984492,362.0,8.100000381469727,43.0,964.0,96400.0,354.0,1.2999999523162842,11.465315435419711,18.079353507517226,1092.3827721729087,36.1216800458899
203,224,B7,-94.138641,-8.448787,94.517014,94.344538,17.096434,95.881071,400.0,0.205896,8.647647,424.4921318517267,16.727781295776367,35.355419888750006,-113.968093071,80.9533122476027,1.4399883635815744,270208,72.2396121632983,185.0,9.800000190734863,38.0,992.0,99200.0,69.0,1.2999999523162842,168.0466877523973,20.867412367615543,1090.5666856593286,38.923995885230035
204,209,B8,-29.496883,7.363376,30.402065,29.787237,-6.244976,30.434836,175.0,0.290354,1.1184,135.76386905531993,8.913698196411133,35.9976998197,-114.18635032750001,171.49301131316565,43.3047846821941,264540,106.2828182492113,765.0,6.099999904632568,35.0,930.0,93000.0,334.0,1.100000023841858,162.50698868683435,7.767750263866219,1113.552249743203,12.191962172105399
205,210,B9,-11.344588,-15.118192,18.901308,11.425928,15.429403,19.199435,175.0,0.081339,0.311212,82.47397635468903,8.343667984008789,35.93352645830001,-114.072961317,206.60422896348982,36.22324095579948,264540,107.77888525794216,765.0,6.099999904632568,35.0,930.0,93000.0,334.0,1.100000023841858,127.39577103651018,6.81594629315714,1277.4135057269666,6.45632569132371
206,210,10,-47.767628,-115.161705,124.675438,48.109318,116.650499,126.181795,175.0,0.341691,1.488794,539.4554548224812,21.96213722229004,35.7876102904,-114.02661411900002,270.1901520712983,24.58276518571172,265345,100.34878020381882,697.0,6.300000190734863,36.0,935.0,93500.0,354.0,1.2999999523162842,83.80984792870169,17.64581259793158,1372.693477478342,39.299046995799
207,208,11,-17.486691,23.687023,29.442478,17.646919,-23.076151,29.050345,175.0,0.160229,0.610872,129.66150866511214,8.833932876586914,35.9931404214,-113.2002752525,238.0869400541825,24.9097490232365,269393,168.936732686421,362.0,8.100000381469727,43.0,964.0,96400.0,354.0,1.2999999523162842,115.91305994581751,9.200409887485876,1336.7849086168276,9.69950422310445
208,209,1,-58.894997,17.735132,61.507362,60.782633,-10.491875,61.681504,175.0,1.887637,7.243258,274.52188125341775,11.68797492980957,35.869460766900005,-113.7342668105,259.4509328750614,76.42303064956775,269393,124.63888746734791,362.0,8.100000381469727,43.0,964.0,96400.0,354.0,1.2999999523162842,94.54906712493857,11.33294352975281,1367.672096829773,20.07220019255727
208,210,2,-42.865726,-10.361258,44.100182,43.799352,13.943776,45.965336,175.0,0.933626,3.582518,196.82952629732532,9.905900955200195,35.86081880785,-113.740291285,258.21609606641846,77.87575473426104,269393,123.57789086146938,362.0,8.100000381469727,43.0,964.0,96400.0,354.0,1.2999999523162842,95.78390393358154,9.974618336582353,1365.245665546744,14.417150793040637
209,211,14,-51.273632,-10.062851,52.251755,51.335894,12.677843,52.878178,400.0,0.062262,2.614992,233.42950373369328,10.673398971557615,35.803296077,-114.15919206150001,255.04753795152322,1.5606506659808639,264540,92.36331760486274,765.0,6.099999904632568,35.0,930.0,93000.0,334.0,1.100000023841858,78.95246204847678,8.78375215635333,1315.1741967599366,17.74894187467867
209,212,15,-43.013393,-14.054086,45.251183,43.060089,16.015315,45.941937,400.0,0.046696,1.961229,202.15514657933568,10.009984970092772,35.7982763547,-114.1484987875,164.51081322878485,1.5763836313303292,264540,92.71146744646519,765.0,6.099999904632568,35.0,930.0,93000.0,334.0,1.100000023841858,169.48918677121515,9.477834035286833,1058.0782607534306,19.10587846643651
210,211,16,-103.821815,38.44931,110.712776,104.079999,-27.605613,107.678763,400.0,0.258183,10.843698,475.3454472571675,18.90089988708496,35.79465411795,-114.165216536,344.5036493141338,1.5763988480578353,264540,91.3311064017178,765.0,6.099999904632568,35.0,930.0,93000.0,334.0,1.100000023841858,169.49635068586622,21.62054529796933,1058.018037182181,44.92791526722502
210,212,17,-95.432045,33.896412,101.273109,95.648078,-24.823009,98.816682,400.0,0.216033,9.073402,434.8162247573747,17.149953842163086,35.78963439565,-114.154523262,75.03993290589335,1.560647321312595,264540,91.68344274909107,765.0,6.099999904632568,35.0,930.0,93000.0,334.0,1.100000023841858,78.96006709410665,14.397813895609033,1315.1850146832476,33.061221037566106
211,213,18,-54.507,-1.371624,54.524254,54.706119,2.96458,54.786387,500.0,0.199119,1.592956,144.41766162056302,9.032373428344728,35.9737901158,-114.3952240275,313.214519946109,56.101241393014526,260525,90.78880369689668,1528.0,1.7999999523162842,35.0,849.0,84900.0,334.0,1.0,20.78548005389098,3.695982694990107,1131.235527039358,12.766365462241927
211,214,19,-100.908875,16.29953,102.216805,101.498554,-11.346226,102.130765,500.0,0.589679,4.953304,270.74028296517497,11.58778190612793,35.68454797925,-114.33006002350001,228.5567635847391,39.217093492331436,264540,72.32209336765068,765.0,6.099999904632568,35.0,930.0,93000.0,334.0,1.100000023841858,105.44323641526091,9.607160283506346,1309.3734475971585,20.677086698375668
212,213,20,-68.772949,6.952469,69.123474,69.095603,-4.371236,69.233735,500.0,0.322654,2.581233,182.4955472983041,9.640340805053713,35.968770393499994,-114.3845307535,312.728141959339,58.27352990394753,260525,91.10269265356733,1528.0,1.7999999523162842,35.0,849.0,84900.0,334.0,1.0,21.271858040661016,4.4638438706747365,1134.4964675085935,16.086039271596213
212,223,21,-69.935211,1.855352,69.959816,70.600601,3.523215,70.688457,500.0,0.66539,5.378567,184.70360603994897,9.68022346496582,35.80789751575,-114.84130532949999,272.07825544446206,125.42411855974576,257353,50.9569086479279,899.0,5.800000190734863,27.0,898.0,89800.0,334.0,0.8999999761581421,61.92174455553794,7.803296469077395,1239.2595409196622,14.904352150710842
213,223,22,-40.153496,-3.590976,40.313747,40.352613,5.165809,40.681924,500.0,0.199117,1.574834,106.52243790614402,8.566427230834961,35.985222525750004,-115.07967101,246.747631827701,89.64501743467814,253425,49.52932837718548,1082.0,7.199999809265137,21.0,905.0,90500.0,82.0,0.699999988079071,15.252368172298986,8.462885094681042,1007.0910517813055,10.577240033831208
214,216,23,-196.925934,0.0451,196.925934,199.097135,25.575071,200.73304,500.0,2.171201,25.620171,522.9974670076995,21.14211082458496,35.4145503497,-114.6116655375,212.44947011073543,40.306364052426176,265345,34.124564386584666,697.0,6.300000190734863,36.0,935.0,93500.0,354.0,1.2999999523162842,141.55052988926457,18.69723738653738,1278.7406538164457,40.89941658199381
215,216,24,221.155624,-29.502768,223.114822,-220.077516,38.666691,223.448486,500.0,1.078109,9.163923,583.3688559154301,24.260740280151367,35.205040229,-114.65326848149999,311.7614206360051,18.865123622721175,266961,16.946118844596615,770.0,5.599999904632568,42.0,923.0,92300.0,354.0,1.2999999523162842,42.238579363994916,20.660101991808006,1295.684090564996,45.02400393455833
215,221,1,-60.104733,-36.503716,70.321404,60.405549,38.960382,71.880051,500.0,0.300816,2.456666,183.8663905432815,9.665632247924805,35.23245624485,-114.8868583705,288.44475129996886,59.50731844131268,265345,2.742624339204692,697.0,6.300000190734863,36.0,935.0,93500.0,354.0,1.2999999523162842,65.55524870003114,8.019372557248062,1346.9152934976514,13.650924555605851
215,221,2,-60.104733,-36.503716,70.321404,60.405549,38.960382,71.880051,500.0,0.300816,2.456666,183.8663905432815,9.665632247924805,35.23245624485,-114.8868583705,288.44475129996886,59.50731844131268,265345,2.742624339204692,697.0,6.300000190734863,36.0,935.0,93500.0,354.0,1.2999999523162842,65.55524870003114,8.019372557248062,1346.9152934976514,13.650924555605851
215,224,26,95.054008,12.476599,95.869339,-94.344559,-7.206399,94.619384,500.0,0.70945,5.270199,250.6654919133903,11.079034805297852,35.252514202,-114.2680134135,67.35719566640654,60.481416120695556,270208,43.88396367981343,185.0,9.800000190734863,38.0,992.0,99200.0,69.0,1.2999999523162842,1.6428043335934603,15.037973590506226,994.4616104475243,25.206150672883858
216,217,27,-213.988922,-26.48559,215.621765,215.494416,39.533205,219.090661,500.0,1.505494,13.047615,563.1054151819951,23.180017471313477,35.17461923495,-114.825963111,221.90828713981625,25.93674508970559,266153,3.0592867147694096,754.0,5.800000190734863,39.0,926.0,92600.0,354.0,1.2999999523162842,132.09171286018375,19.41878184208508,1313.7325784864074,42.86301675115392
216,219,28,247.779892,11.380367,248.041107,-245.78031,3.949764,245.812045,500.0,1.999582,15.330132,647.7699064351722,27.91924476623535,35.34035338545,-114.85497218500001,307.96728213387195,28.554000463913425,264540,12.513730050764144,765.0,6.099999904632568,35.0,930.0,93000.0,334.0,1.100000023841858,26.032717866128053,28.54461680336226,1171.4417014583569,55.296811239411
217,218,29,-48.196774,-74.971214,89.126938,48.359089,76.107424,90.171733,500.0,0.162316,1.13621,229.22231701335576,10.579042434692385,35.10132792,-114.999522918,282.00426444829014,14.57343843515518,263731,2.135943719328595,927.0,4.400000095367432,45.0,905.0,90500.0,354.0,1.399999976158142,71.99573555170986,6.876667880050263,1385.776077140074,16.54107909601228
217,222,30,-6.918331,-18.92646,20.151283,6.935734,19.056984,20.279868,500.0,0.017403,0.130523,51.82634884249975,8.141336441040039,35.70936497125,-115.1056865365,346.55568240887214,142.19993312364048,257353,26.265606048579304,899.0,5.800000190734863,27.0,898.0,89800.0,334.0,0.8999999761581421,167.44431759112786,6.499127768924154,1036.642115125143,4.99944465754638
218,221,1,-21.079828,26.955956,34.219627,21.120516,-26.603331,33.967829,500.0,0.040687,0.352625,86.97883454796819,8.380632400512695,35.2156142699,-115.13791234499999,334.068802934961,24.91093291739191,260530,0.6477738589819187,1220.0,3.299999952316284,41.0,876.0,87600.0,354.0,1.2999999523162842,19.931197065038987,4.319666433531438,1175.8254825526112,7.397257147305992
218,221,2,-21.079828,26.955956,34.219627,21.120516,-26.603331,33.967829,500.0,0.040687,0.352625,86.97883454796819,8.380632400512695,35.2156142699,-115.13791234499999,334.068802934961,24.91093291739191,260530,0.6477738589819187,1220.0,3.299999952316284,41.0,876.0,87600.0,354.0,1.2999999523162842,19.931197065038987,4.319666433531438,1175.8254825526112,7.397257147305992
219,220,1,78.373764,-8.832706,78.869919,-78.033489,11.554903,78.884354,500.0,0.340275,2.722197,207.95753014277687,10.125741958618164,35.532956375,-115.2128843045,301.01727582000524,49.281334286649994,258141,6.324163197299666,954.0,5.699999809265137,32.0,905.0,90500.0,334.0,0.8999999761581421,32.98272417999476,8.578267290455187,1163.1782011025437,17.878389566247016
219,220,2,78.373764,-8.832706,78.869919,-78.033489,11.554903,78.884354,500.0,0.340275,2.722197,207.95753014277687,10.125741958618164,35.532956375,-115.2128843045,301.01727582000524,49.281334286649994,258141,6.324163197299666,954.0,5.699999809265137,32.0,905.0,90500.0,334.0,0.8999999761581421,32.98272417999476,8.578267290455187,1163.1782011025437,17.878389566247016
220,223,1,46.552334,-10.437952,47.708179,-46.478071,10.98255,47.758009,500.0,0.074263,0.544598,125.97888959808424,8.788213729858398,35.73552259805,-115.491516237,337.70442527395744,21.35444911338634,253425,5.089453500966101,1082.0,7.199999809265137,21.0,905.0,90500.0,82.0,0.699999988079071,104.29557472604256,8.314691735189626,1188.0623470165208,10.603727145670783
220,223,2,46.552334,-10.437952,47.708179,-46.478071,10.98255,47.758009,500.0,0.074263,0.544598,125.97888959808424,8.788213729858398,35.73552259805,-115.491516237,337.70442527395744,21.35444911338634,253425,5.089453500966101,1082.0,7.199999809265137,21.0,905.0,90500.0,82.0,0.699999988079071,104.29557472604256,8.314691735189626,1188.0623470165208,10.603727145670783
221,222,34,6.947882,-15.85105,17.306904,-6.935734,15.942831,17.386152,500.0,0.012147,0.09178,44.310791482789945,8.106317520141602,35.823651321149995,-115.2440759635,355.81008268792635,113.13137799107704,253425,27.06993274564634,1082.0,7.199999809265137,21.0,905.0,90500.0,82.0,0.699999988079071,86.18991731207365,7.5783559802166565,1202.0995319292117,3.686116690493752
223,318,1,312.00293,-48.160767,315.69809,-297.803879,161.753174,338.897093,500.0,14.199051,113.592407,833.1727599911487,40.240068435668945,35.6650814384,-116.25650849249999,255.190966299923,134.83363637092583,239061,1.6960774471141216,224.0,8.399999618530273,23.0,987.0,98700.0,112.0,0.5,36.80903370007701,50.50793120357048,1061.673919288217,78.47727488207836
301,302,C1,14.49797,-36.978848,39.719345,-14.483562,37.046085,39.776701,175.0,0.014408,0.067237,171.91936074012006,9.457464218139648,35.03875954075,-118.843312456,243.44298077505434,4.386662067124732,193839,1.9317872823073838,197.0,6.900000095367432,6.0,997.0,99700.0,329.0,1.0,85.55701922494566,8.208958720647388,1315.1419372435073,13.07230465940864
301,303,C2,-38.631615,21.650928,44.285034,39.858184,-16.945362,43.310739,175.0,1.22657,4.705567,191.6812761044897,9.808626174926758,35.132562363350004,-118.432657652,74.8245157929639,73.24899856739759,201352,1.1569499647389767,1234.0,1.399999976158142,8.0,876.0,87600.0,306.0,1.100000023841858,51.17548420703611,3.219378256972277,1301.7711182066732,14.72465269997316
301,305,C3,-1.10456,0.998776,1.489163,1.10586,-0.993755,1.486767,175.0,0.001299,0.00502,6.4456236878488165,8.011960983276367,34.96073353885,-118.666126353,124.16098495024664,34.31766044565577,197187,1.159579646235395,1318.0,0.10000000149011612,7.0,881.0,88100.0,329.0,1.0,24.839015049753357,0.2110586181276517,1180.5489484818738,0.5459852974446813
302,304,C4,-7.108568,18.389147,19.715286,7.26688,-17.779887,19.2076,175.0,0.158312,0.60926,85.176954001945,8.36604118347168,34.83101416905,-118.714222427,148.04905085666337,52.08829416605541,196510,2.4486343801899135,1006.0,0.8999999761581421,12.0,890.0,89000.0,329.0,1.0,0.9509491433366293,1.8127065421024326,1017.7681307204012,8.368994020441049
302,306,C5,3.405964,-4.32992,5.508974,-3.39787,4.360999,5.528457,175.0,0.008094,0.03108,23.800700887418575,8.037252426147461,34.95855226255,-118.57052961950001,106.3161668365982,55.94519037768375,198553,1.5187727987860509,1572.0,-3.5,8.0,820.0,82000.0,329.0,1.0,42.6838331634018,-3.359297752380371,1276.2560299250708,1.864884500394166
303,309,C6,14.520858,-11.402061,18.462458,-14.412037,11.819791,18.639053,175.0,0.10882,0.41773,82.11726643853636,8.340749740600586,34.976650231700006,-118.08544598200001,188.13452627185995,54.11331791886194,206968,1.4846723558012531,783.0,4.699999809265137,10.0,922.0,92200.0,306.0,1.399999976158142,117.86547372814005,5.065408325479439,1378.9957023831596,5.9548602143300755
303,324,C7,-169.776077,9.811262,170.059326,170.42981,17.645514,171.340842,400.0,0.653733,27.456776,756.3893704456857,34.82867240905762,35.212062175599996,-118.039183389,146.93439430470073,1.454265274314389,208330,1.7152550570184055,708.0,6.300000190734863,10.0,934.0,93400.0,306.0,1.2999999523162842,159.06560569529927,35.53397863007376,1179.372196874502,64.1349162249391
304,309,C8,-54.707874,11.274885,55.857628,55.660758,-7.604517,56.177831,175.0,0.952884,3.670368,247.36521113475743,10.999269485473633,34.68392469455,-118.345463673,73.75738112970913,41.52056208016359,202769,0.8280799601706181,773.0,4.699999809265137,11.0,931.0,93100.0,351.0,0.800000011920929,97.24261887029087,7.7902984643169475,1256.062145424916,19.693707993331472
305,310,C9,-46.623577,-5.83622,46.987438,47.165955,7.911407,47.824865,175.0,0.542378,2.075187,203.70925645646685,10.04014015197754,34.801600393499996,-118.30750604849999,113.32976259868565,40.40249884327066,203469,1.1424100378689062,748.0,5.0,10.0,935.0,93500.0,306.0,1.2999999523162842,12.670237401314353,7.670621871948242,1123.2299475602535,18.136024319769948
306,310,10,-83.790993,-111.591431,139.54776,84.837422,116.150874,143.834675,175.0,1.04643,4.559443,601.6383515944012,25.26461601257324,34.808241774349995,-118.190362231,138.18711791697945,23.53186086187305,205576,0.9386546028337737,713.0,5.300000190734863,9.0,937.0,93700.0,306.0,1.2999999523162842,167.81288208302055,26.755029280151575,1117.3718756244896,53.844057177307306
307,308,11,-36.13681,34.459412,49.933159,36.586415,-32.745293,49.100102,175.0,0.449605,1.714119,219.42669254894707,10.36503791809082,34.16299173335,-118.7662179435,56.26178119320775,24.75670932515617,195171,1.4464621072353085,372.0,9.600000381469727,9.0,981.0,98100.0,45.0,2.0,168.73821880679225,12.092092510083603,1190.7173013414426,18.428109871398068
308,309,1,-78.987053,18.027235,81.01812,82.245496,-5.523908,82.43079,175.0,3.258443,12.503327,362.13076432165974,14.379568099975586,34.4802378884,-118.39079997799999,40.21333607696363,74.5767423466253,202071,1.4426397722920923,762.0,6.0,14.0,943.0,94300.0,351.0,0.699999988079071,130.78666392303637,13.335990905761719,1172.0033618997882,30.89844074633496
308,310,2,-67.22654,-6.205119,67.512306,69.453514,14.750484,71.002587,175.0,2.226974,8.545365,301.7631484524422,12.447690963745115,34.4770168747,-118.37939134349999,41.771399382824995,75.41473787810489,202071,1.436609056439648,762.0,6.0,14.0,943.0,94300.0,351.0,0.699999988079071,129.228600617175,11.143058776855469,1175.321175428181,25.67495206937856
309,311,14,-100.021049,-8.879545,100.414429,100.245101,18.289707,101.89992,400.0,0.224052,9.410162,442.8117937904597,17.483606338500977,34.7389259,-118.11963760200001,63.413327538162264,1.5744173883172414,206974,2.0006750741101893,711.0,6.300000190734863,10.0,946.0,94600.0,351.0,0.800000011920929,107.58667246183774,15.903664009207205,1233.5919347057065,35.89613237023146
309,312,15,-135.664719,-3.529559,135.710617,136.073964,20.717841,137.642117,400.0,0.409245,17.188282,598.4624156970516,25.08854866027832,34.7293605034,-118.12361469999999,154.41113041358733,1.577419398220969,206278,1.4537852103916686,706.0,6.0,10.0,948.0,94800.0,351.0,0.800000011920929,16.58886958641267,29.86023712158203,1055.5943022541903,56.694358279412164
310,311,16,-144.919861,34.597176,148.992386,145.38092,-15.232687,146.176765,400.0,0.461059,19.364489,635.2192901595748,27.179956436157227,34.7357048863,-118.1082289675,334.52631029314165,1.573879005359757,206974,0.9642253309948795,711.0,6.300000190734863,10.0,946.0,94600.0,351.0,0.800000011920929,16.47368970685835,33.03510167890454,1052.3543162347505,60.361731819787146
310,312,17,-181.550476,41.528614,186.239639,182.270875,-11.271872,182.619076,400.0,0.720399,30.256742,794.0205164924031,37.42785453796387,34.726139489699996,-118.11220606549999,243.29540826571312,1.571676799018731,206974,1.1628829141889936,711.0,6.300000190734863,10.0,946.0,94600.0,351.0,0.800000011920929,107.70459173428688,35.8621421582593,1233.4644954987675,64.37319593632328
311,313,18,-145.747589,-40.574345,151.289917,147.20627,52.243791,156.202111,500.0,1.458681,11.669446,394.463266766129,15.552701950073242,34.50368100025,-118.065394118,170.8349978934301,53.70230936357421,207669,1.5864932931362066,1163.0,4.599999904632568,17.0,919.0,91900.0,351.0,0.5,0.16500210656988656,20.10085402137429,994.5114808901782,39.66402342716531
311,314,19,-99.878448,37.517189,106.692291,100.509907,-32.212941,105.545795,500.0,0.631458,5.304248,278.1823830772705,11.785249710083008,34.8435290479,-117.8984061615,59.815032333039426,45.030436553750164,210340,0.7293270345475279,697.0,5.800000190734863,11.0,938.0,93800.0,306.0,1.2999999523162842,66.18496766696057,8.984500691787616,1355.925938036718,20.51604555039771
312,313,20,-81.390175,-53.241302,97.257378,81.9726,57.900701,100.359345,500.0,0.582425,4.659398,253.7227262294423,11.153936386108398,34.49411560365,-118.069371216,169.66021641891973,51.728822906200705,207669,0.9469890389000564,1163.0,4.599999904632568,17.0,919.0,91900.0,351.0,0.5,1.339783581080269,11.786176588943817,994.5114808901782,25.51229735450991
312,323,21,-236.954636,43.795357,240.967911,244.598525,17.992748,245.259408,500.0,7.643889,61.788105,628.6313344035824,26.797666549682617,34.4879832208,-117.61655421500001,119.24125114688786,106.0334140418212,215042,0.37812492327164215,1076.0,6.400000095367432,15.0,911.0,91100.0,223.0,0.800000011920929,103.75874885311214,25.520923702383698,1227.578370379008,51.20905919916917
313,323,22,-229.068924,71.88073,240.082092,235.661468,-19.739708,236.486751,500.0,6.592544,52.141022,607.3611028171649,25.58465003967285,34.25913575225,-117.56603806300001,90.68381410399729,83.24113817308535,215722,1.5973050712788772,2210.0,-1.7999999523162842,24.0,774.0,77400.0,223.0,0.6000000238418579,132.3161858960027,21.455172391302312,1151.5403670569958,52.743361864890964
314,316,23,-224.882263,15.267102,225.399902,227.698676,17.966571,228.406403,500.0,2.816413,33.233673,595.0217829491972,24.897890090942383,35.0416656677,-117.46823389549999,61.27736452675009,44.927729327005714,217731,1.1754647648536851,757.0,4.800000190734863,13.0,927.0,92700.0,242.0,1.100000023841858,0.722635473249909,32.64905336121046,994.8251614701093,59.811694154367785
315,316,24,-34.306259,62.173145,71.010002,34.417602,-61.226733,70.237341,500.0,0.111343,0.946413,183.43928153260785,9.65785026550293,35.2021686149,-117.31901108699999,139.1505915831454,18.746587950621127,220478,1.894277405563819,1001.0,3.5999999046325684,19.0,898.0,89800.0,242.0,0.8999999761581421,102.8494084168546,5.43053579401294,1276.3747740871343,14.371898070753081
315,321,1,-137.813492,-71.061028,155.055573,139.298815,83.191171,162.249594,500.0,1.485324,12.130143,400.5531912074419,15.784215927124023,35.50565725275,-117.25089816349998,24.63912469184521,58.68035354688509,221165,1.909962955671058,792.0,6.599999904632568,18.0,932.0,93200.0,12.0,0.5,167.3608753081548,20.519567399710468,981.2449558065101,40.82091722736216
315,321,2,-137.813492,-71.061028,155.055573,139.298815,83.191171,162.249594,500.0,1.485324,12.130143,400.5531912074419,15.784215927124023,35.50565725275,-117.25089816349998,24.63912469184521,58.68035354688509,221165,1.909962955671058,792.0,6.599999904632568,18.0,932.0,93200.0,12.0,0.5,167.3608753081548,20.519567399710468,981.2449558065101,40.82091722736216
315,324,26,172.706253,24.515394,174.437546,-170.429785,-7.60449,170.599355,500.0,2.276468,16.910904,450.62240824259146,17.8153133392334,35.2362759736,-117.71062519,263.78864241348344,59.25640398232974,213678,1.7859132718646786,892.0,4.599999904632568,18.0,904.0,90400.0,12.0,0.800000011920929,108.21135758651656,14.862288955861914,1235.457522726617,36.474132048512814
316,317,27,-187.071747,-111.328865,217.692322,188.592142,124.505625,225.983731,500.0,1.520395,13.17676,568.4698386670742,23.46308708190918,35.25840025645,-117.15370904899999,33.601264589227526,32.0703414274824,223263,1.5292915789926425,958.0,4.0,14.0,907.0,90700.0,257.0,0.8999999761581421,43.398735410772474,20.599163055419922,1219.1211992107142,46.629476957263485
316,319,28,-77.153984,17.791826,79.178825,77.360304,-16.210043,79.040383,500.0,0.206319,1.581783,206.76325862148917,10.101423263549805,35.0279991523,-117.188004079,154.70724354717186,27.138990967823084,222571,2.112861749248584,640.0,6.099999904632568,11.0,940.0,94000.0,242.0,1.2000000476837158,87.29275645282814,7.893354893431933,1359.835127436097,15.20502408342188
317,318,29,-164.630371,-75.264229,181.018967,165.284343,79.842034,183.558341,500.0,0.653972,4.577805,455.4656960771258,18.023481369018555,35.44212331835,-117.01620042849999,26.8584961244473,15.879932652806714,225363,0.9337792042101049,1006.0,3.799999952316284,16.0,916.0,91600.0,257.0,0.800000011920929,50.1415038755527,14.786979248267471,1214.0353888167526,37.51667375372318
317,322,30,-23.961784,-43.963348,50.069386,24.195401,45.71547,51.723511,500.0,0.233616,1.752122,125.98065343420228,8.788213729858398,35.9086959435,-117.27055059599999,341.9673129068019,124.1052965213618,221155,2.268894183696831,816.0,7.099999904632568,11.0,926.0,92600.0,358.0,0.8999999761581421,16.032687093198092,8.36062555362605,1060.3516154070187,11.88102621844399
318,321,1,44.517582,-23.917849,50.535912,-44.446418,24.534605,50.768405,500.0,0.071164,0.616757,125.4092416627319,8.781404495239258,35.625578804750006,-117.045967096,334.8207162541743,29.440966906351033,224654,2.1245980851639903,744.0,6.5,14.0,950.0,95000.0,257.0,0.800000011920929,102.17928374582573,7.4377031326293945,1238.6694860162027,10.124512073521077
318,321,2,44.517582,-23.917849,50.535912,-44.446418,24.534605,50.768405,500.0,0.071164,0.616757,125.4092416627319,8.781404495239258,35.625578804750006,-117.045967096,334.8207162541743,29.440966906351033,224654,2.1245980851639903,744.0,6.5,14.0,950.0,95000.0,257.0,0.800000011920929,102.17928374582573,7.4377031326293945,1238.6694860162027,10.124512073521077
319,320,1,-96.699211,-1.496463,96.710793,97.207795,5.565132,97.366966,500.0,0.508584,4.068669,253.12479690333492,11.139345169067385,34.69004841255,-117.0939638955,173.7034075408551,50.917641569310206,223976,0.5349460739898468,1137.0,4.599999904632568,23.0,890.0,89000.0,225.0,1.100000023841858,51.296592459144904,7.835721875494528,1277.6246981096858,19.812140237884147
319,320,2,-96.699211,-1.496463,96.710793,97.207795,5.565132,97.366966,500.0,0.508584,4.068669,253.12479690333492,11.139345169067385,34.69004841255,-117.0939638955,173.7034075408551,50.917641569310206,223976,0.5349460739898468,1137.0,4.599999904632568,23.0,890.0,89000.0,225.0,1.100000023841858,51.296592459144904,7.835721875494528,1277.6246981096858,19.812140237884147
320,323,1,-138.237839,-6.225452,138.377945,138.855293,10.753447,139.271063,500.0,0.617454,4.527995,360.33242936771353,14.317312240600586,34.35773449745,-117.0883646675,191.09942568688564,23.73400695445522,223984,1.7037065959877034,1551.0,3.0,25.0,842.0,84200.0,225.0,1.0,33.90057431311436,10.436552047729492,1196.0176813992002,30.127684144783455
320,323,2,-138.237839,-6.225452,138.377945,138.855293,10.753447,139.271063,500.0,0.617454,4.527995,360.33242936771353,14.317312240600586,34.35773449745,-117.0883646675,191.09942568688564,23.73400695445522,223984,1.7037065959877034,1551.0,3.0,25.0,842.0,84200.0,225.0,1.0,33.90057431311436,10.436552047729492,1196.0176813992002,30.127684144783455
321,322,34,-19.70484,-34.809727,39.999969,19.804612,35.563564,40.706139,500.0,0.099773,0.753837,98.8552953132293,8.489580154418945,36.0921514299,-117.30031726349999,336.7951627128865,83.98330271350771,220456,0.23954791994549104,372.0,10.399999618530273,11.0,974.0,97400.0,358.0,1.0,21.20483728711349,11.138055802566669,1099.8439938605766,8.988119757442695
323,325,35,-417.970551,160.31839,447.662109,417.970551,-141.13909,441.157142,722.0,0.0,19.1793,1158.7950700198926,67.38070487976074,34.252447341449994,-117.12109914749999,265.12388154306666,1.4534200752008906,223288,1.6967119263507657,1700.0,4.199999809265137,26.0,856.0,85600.0,225.0,0.699999988079071,139.87611845693334,74.9407305312725,1139.4748973284181,101.69553298074158
